Version 4
SHEET 1 1844 1488
WIRE 112 144 16 144
WIRE 416 144 336 144
WIRE -592 208 -592 160
WIRE 112 208 16 208
WIRE 432 208 336 208
WIRE 112 272 16 272
WIRE 432 272 336 272
WIRE 112 336 16 336
WIRE 448 336 336 336
WIRE 448 432 448 336
WIRE 912 432 832 432
WIRE 1056 432 912 432
WIRE 1152 432 1056 432
WIRE 1520 432 1408 432
WIRE 1648 432 1520 432
WIRE 1760 432 1648 432
WIRE 912 544 912 432
WIRE 1056 544 1056 432
WIRE 1520 544 1520 432
WIRE 1648 544 1648 432
WIRE -464 704 -464 640
WIRE -464 704 -576 704
WIRE 912 704 912 608
WIRE 1056 704 1056 608
WIRE 1056 704 912 704
WIRE 1280 704 1280 528
WIRE 1280 704 1056 704
WIRE 1520 704 1520 608
WIRE 1520 704 1280 704
WIRE 1648 704 1648 608
WIRE 1648 704 1520 704
WIRE -464 720 -464 704
WIRE -240 720 -464 720
WIRE 416 736 416 672
WIRE -464 752 -464 720
WIRE 1280 752 1280 704
WIRE -240 816 -240 720
WIRE 416 896 416 816
WIRE -464 912 -464 832
WIRE -464 992 -464 976
WIRE -240 992 -240 880
WIRE -240 992 -464 992
WIRE -464 1024 -464 992
WIRE -464 1024 -592 1024
WIRE 416 1040 416 960
WIRE -464 1088 -464 1024
WIRE 112 1120 48 1120
WIRE 368 1120 192 1120
FLAG 416 144 5V
FLAG 432 208 DIS
FLAG 432 272 Vc
FLAG 16 144 0
FLAG 16 272 LED
FLAG 16 208 Vc
FLAG 16 336 5V
FLAG 448 496 0
FLAG -592 288 0
FLAG -592 160 5V
FLAG -592 1024 Vc
FLAG -464 1152 0
FLAG -576 704 DIS
FLAG 48 1120 LED
FLAG 416 1136 0
FLAG 416 672 5V
FLAG -464 560 5V
FLAG 1280 752 0
FLAG 832 432 12V
FLAG 1760 432 5V
SYMBOL NE555 224 240 R0
SYMATTR InstName U2
SYMBOL cap 432 432 R0
SYMATTR InstName C2
SYMATTR Value 100n
SYMBOL voltage -592 192 R0
SYMATTR InstName V1
SYMATTR Value 5V
SYMBOL schottky -448 976 R180
WINDOW 0 24 64 Left 2
WINDOW 3 24 0 Left 2
SYMATTR InstName D2
SYMATTR Value BAT54
SYMBOL cap -480 1088 R0
SYMATTR InstName C1
SYMATTR Value 310p
SYMBOL schottky -256 816 R0
SYMATTR InstName D1
SYMATTR Value BAT54
SYMBOL res -480 736 R0
SYMATTR InstName R1
SYMATTR Value 800k
SYMBOL res 208 1104 R90
WINDOW 0 0 56 VBottom 2
WINDOW 3 32 56 VTop 2
SYMATTR InstName R2
SYMATTR Value 100
SYMBOL nmos 368 1040 R0
SYMATTR InstName M1
SYMATTR Value BSC0906NS
SYMBOL LED 400 896 R0
SYMATTR InstName D3
SYMATTR Value LED
SYMBOL res 400 720 R0
SYMATTR InstName R3
SYMATTR Value 8.2
SYMBOL Res -480 544 R0
SYMATTR InstName R4
SYMATTR Value 200k
SYMBOL PowerProducts\\LT1085-5 1280 432 R0
SYMATTR InstName U1
SYMBOL cap 1504 544 R0
SYMATTR InstName C3
SYMATTR Value 100nF
SYMBOL cap 1040 544 R0
SYMATTR InstName C4
SYMATTR Value 100nF
SYMBOL polcap 896 544 R0
SYMATTR InstName C5
SYMATTR Value 100µF
SYMBOL polcap 1632 544 R0
SYMATTR InstName C6
SYMATTR Value 100µF
TEXT -656 352 Left 2 !.tran 0 10m 0 10n
TEXT -656 384 Left 2 !.model LED D(Ron=0.1 Roff=1Meg Vfwd=1.55)
TEXT -32 72 Left 2 ;555 Timer
TEXT -640 1240 Left 2 ;Diode Circuit connected to Discharge (DIS)\n and Threshold (THRS) of 555 Circuit
TEXT 144 1232 Left 2 ;LED output of 555 Timer
TEXT -616 64 Left 2 ;Power and Model Inputs for this program
TEXT 608 112 Left 2 !.include regulators.lib
TEXT 616 144 Left 2 !.lib 7805
TEXT 1296 584 Left 2 !LM7805
RECTANGLE Normal -96 448 -704 96 2
RECTANGLE Normal -96 1200 -704 512 2
RECTANGLE Normal 544 544 -48 96 2
RECTANGLE Normal 592 1200 -48 592 2
