Version 4
SHEET 1 3668 1348
WIRE 2784 -64 2784 -112
WIRE 2784 -64 2704 -64
WIRE 2848 -64 2784 -64
WIRE 2704 -16 2704 -64
WIRE 2848 0 2848 -64
WIRE 1056 16 1008 16
WIRE 1200 16 1136 16
WIRE 3600 16 3600 -48
WIRE 848 48 768 48
WIRE 1008 48 1008 16
WIRE 1008 48 928 48
WIRE 3040 48 2944 48
WIRE 3328 48 3264 48
WIRE 768 64 768 48
WIRE 2944 64 2944 48
WIRE 2560 112 2512 112
WIRE 2704 112 2704 64
WIRE 2704 112 2624 112
WIRE 2848 112 2848 64
WIRE 2848 112 2704 112
WIRE 3040 112 2848 112
WIRE 3328 112 3264 112
WIRE 1008 128 1008 48
WIRE 1056 128 1008 128
WIRE 1584 128 1520 128
WIRE 1696 128 1648 128
WIRE 1888 128 1696 128
WIRE 1200 144 1200 16
WIRE 1200 144 1120 144
WIRE 1296 144 1200 144
WIRE 1328 144 1296 144
WIRE 3600 144 3600 96
WIRE 3600 144 3536 144
WIRE 256 160 128 160
WIRE 384 160 256 160
WIRE 512 160 384 160
WIRE 816 160 512 160
WIRE 1056 160 816 160
WIRE 3040 176 2960 176
WIRE 3328 176 3264 176
WIRE 1696 192 1696 128
WIRE 3600 192 3600 144
WIRE 3600 192 3536 192
WIRE 128 208 128 160
WIRE 256 208 256 160
WIRE 384 208 384 160
WIRE 512 208 512 160
WIRE 816 208 816 160
WIRE 1088 208 1088 176
WIRE 3600 224 3600 192
WIRE 3040 240 2976 240
WIRE 3328 240 3264 240
WIRE 3328 256 3328 240
WIRE 3600 256 3600 224
WIRE 128 352 128 288
WIRE 256 352 256 272
WIRE 256 352 128 352
WIRE 384 352 384 272
WIRE 384 352 256 352
WIRE 512 352 512 288
WIRE 512 352 384 352
WIRE 624 352 512 352
WIRE 1696 352 1696 272
WIRE 624 384 624 352
WIRE 624 496 624 464
WIRE 720 496 624 496
WIRE 816 496 816 288
WIRE 816 496 720 496
WIRE 720 528 720 496
WIRE 1664 800 1568 800
WIRE 1840 800 1744 800
WIRE 832 832 704 832
WIRE 1024 832 912 832
WIRE 1456 864 1440 864
WIRE 1568 864 1568 800
WIRE 1568 864 1536 864
WIRE 704 912 704 832
WIRE 768 912 704 912
WIRE 912 912 832 912
WIRE 1568 928 1568 864
WIRE 1664 928 1568 928
WIRE 1840 944 1840 800
WIRE 1840 944 1728 944
WIRE 2016 944 1840 944
WIRE 1664 960 1488 960
WIRE 432 976 432 928
WIRE 704 1040 704 912
WIRE 768 1040 704 1040
WIRE 912 1056 912 912
WIRE 912 1056 832 1056
WIRE 928 1056 912 1056
WIRE 1024 1056 1024 832
WIRE 1024 1056 1008 1056
WIRE 1136 1056 1024 1056
WIRE 432 1072 432 1056
WIRE 624 1072 432 1072
WIRE 768 1072 624 1072
WIRE 432 1104 432 1072
WIRE 1024 1104 1024 1056
WIRE 624 1120 624 1072
WIRE 1024 1136 1024 1104
WIRE 432 1232 432 1184
WIRE 528 1232 432 1232
WIRE 624 1232 624 1184
WIRE 624 1232 528 1232
WIRE 528 1264 528 1232
FLAG 720 528 0
FLAG 1088 208 0
FLAG 1088 112 5V
FLAG 768 64 0
FLAG 1296 144 Vsns1
FLAG 1520 128 Vsns1
FLAG 1888 128 Vfilter
FLAG 1488 960 Vfilter
FLAG 1696 352 2V5
FLAG 1440 864 2V5
FLAG 2016 944 Vsns2
FLAG 1696 976 0
FLAG 1696 912 5V
FLAG 384 816 0
FLAG 384 736 5V
FLAG 432 928 5V
FLAG 528 1264 0
FLAG 800 1024 5V
FLAG 800 1088 0
FLAG 1024 1168 0
FLAG 1136 1056 2V5
FLAG 2944 64 0
FLAG 3328 320 0
FLAG 3328 176 Vt
FLAG 3328 112 DIS
FLAG 3328 48 5V
FLAG 2512 112 Vsns2
FLAG 2784 -112 5V
FLAG 2976 240 5V
FLAG 2960 176 PWM
FLAG 3600 288 0
FLAG 3536 144 DIS
FLAG 3536 192 Vt
FLAG 3600 -48 5V
SYMBOL current 128 288 R180
WINDOW 0 24 80 Left 2
WINDOW 3 24 0 Left 2
WINDOW 123 0 0 Left 0
WINDOW 39 0 0 Left 0
SYMATTR InstName I1
SYMATTR Value PULSE(0 100n 1n 0 0 20u 0.1m)
SYMBOL diode 240 208 R0
SYMATTR InstName D1
SYMBOL cap 368 208 R0
SYMATTR InstName C1
SYMATTR Value 4p
SYMBOL res 496 192 R0
SYMATTR InstName R1
SYMATTR Value 10Meg
SYMBOL voltage 624 368 R0
WINDOW 123 0 0 Left 0
WINDOW 39 0 0 Left 0
SYMATTR InstName V1
SYMATTR Value 5V
SYMBOL res 800 192 R0
SYMATTR InstName R2
SYMATTR Value 100k
SYMBOL OpAmps\\UniversalOpAmp1 1088 144 R0
SYMATTR InstName U1
SYMBOL res 1152 0 R90
WINDOW 0 0 56 VBottom 2
WINDOW 3 32 56 VTop 2
SYMATTR InstName R3
SYMATTR Value 90k
SYMBOL res 944 32 R90
WINDOW 0 0 56 VBottom 2
WINDOW 3 32 56 VTop 2
SYMATTR InstName R4
SYMATTR Value 10k
SYMBOL cap 1648 112 R90
WINDOW 0 0 32 VBottom 2
WINDOW 3 32 32 VTop 2
SYMATTR InstName C2
SYMATTR Value 530n
SYMBOL res 1680 176 R0
SYMATTR InstName R5
SYMATTR Value 10k
SYMBOL OpAmps\\UniversalOpAmp1 1696 944 R0
SYMATTR InstName U2
SYMBOL res 1552 848 R90
WINDOW 0 0 56 VBottom 2
WINDOW 3 32 56 VTop 2
SYMATTR InstName R6
SYMATTR Value 10k
SYMBOL res 1760 784 R90
WINDOW 0 0 56 VBottom 2
WINDOW 3 32 56 VTop 2
SYMATTR InstName R7
SYMATTR Value 90k
SYMBOL voltage 384 720 R0
SYMATTR InstName V3
SYMATTR Value 5V
SYMBOL res 416 960 R0
SYMATTR InstName R8
SYMATTR Value 10Meg
SYMBOL res 416 1088 R0
SYMATTR InstName R9
SYMATTR Value 10Meg
SYMBOL cap 608 1120 R0
SYMATTR InstName C3
SYMATTR Value 4p
SYMBOL OpAmps\\UniversalOpAmp1 800 1056 R0
SYMATTR InstName U3
SYMBOL cap 832 896 R90
WINDOW 0 0 32 VBottom 2
WINDOW 3 32 32 VTop 2
SYMATTR InstName C4
SYMATTR Value 100n
SYMBOL res 1024 1040 R90
WINDOW 0 0 56 VBottom 2
WINDOW 3 32 56 VTop 2
SYMATTR InstName R10
SYMATTR Value 50
SYMBOL res 928 816 R90
WINDOW 0 0 56 VBottom 2
WINDOW 3 32 56 VTop 2
SYMATTR InstName R11
SYMATTR Value 10k
SYMBOL cap 1008 1104 R0
SYMATTR InstName C5
SYMATTR Value 1µ
SYMBOL Misc\\NE555 3152 144 R0
SYMATTR InstName U4
SYMBOL cap 3312 256 R0
SYMATTR InstName C6
SYMATTR Value 100n
SYMBOL schottky 2864 64 R180
WINDOW 0 24 64 Left 2
WINDOW 3 24 0 Left 2
SYMATTR InstName D2
SYMATTR Value BAT54
SYMBOL res 2688 -32 R0
SYMATTR InstName R12
SYMATTR Value 1k
SYMBOL cap 2624 96 R90
WINDOW 0 0 32 VBottom 2
WINDOW 3 32 32 VTop 2
SYMATTR InstName C7
SYMATTR Value 3n
SYMBOL res 3584 0 R0
SYMATTR InstName R13
SYMATTR Value 5k
SYMBOL cap 3584 224 R0
SYMATTR InstName C8
SYMATTR Value 2.7n
TEXT 832 304 Left 2 ;Load Resistor
TEXT 88 16 Left 2 !.tran 0 1m 0 10n
TEXT 224 120 Left 2 ;Model of Photodiode
TEXT 448 480 Left 2 ;Reverse Bias
TEXT 920 -96 Left 2 ;Gain: about 10x\nWe might have to change this
TEXT 1696 40 Center 2 ;High Pass Filter\n(WIP)
TEXT 1552 424 Left 2 ;We can offset by changing GND\nto 2.5V here
