Version 4
SHEET 1 1992 680
WIRE 1056 16 1008 16
WIRE 1200 16 1136 16
WIRE 848 48 768 48
WIRE 1008 48 1008 16
WIRE 1008 48 928 48
WIRE 768 64 768 48
WIRE 1008 128 1008 48
WIRE 1056 128 1008 128
WIRE 1200 144 1200 16
WIRE 1200 144 1120 144
WIRE 1296 144 1200 144
WIRE 1328 144 1296 144
WIRE 1600 144 1536 144
WIRE 1712 144 1664 144
WIRE 1904 144 1712 144
WIRE 256 160 128 160
WIRE 384 160 256 160
WIRE 512 160 384 160
WIRE 816 160 512 160
WIRE 1056 160 816 160
WIRE 128 208 128 160
WIRE 256 208 256 160
WIRE 384 208 384 160
WIRE 512 208 512 160
WIRE 816 208 816 160
WIRE 1088 208 1088 176
WIRE 1712 208 1712 144
WIRE 128 352 128 288
WIRE 256 352 256 272
WIRE 256 352 128 352
WIRE 384 352 384 272
WIRE 384 352 256 352
WIRE 512 352 512 288
WIRE 512 352 384 352
WIRE 624 352 512 352
WIRE 1712 368 1712 288
WIRE 624 384 624 352
WIRE 624 496 624 464
WIRE 720 496 624 496
WIRE 816 496 816 288
WIRE 816 496 720 496
WIRE 720 528 720 496
FLAG 720 528 0
FLAG 1088 208 0
FLAG 1088 112 5V
FLAG 768 64 0
FLAG 1296 144 Vsns1
FLAG 1712 368 0
FLAG 1536 144 Vsns1
FLAG 1904 144 Vfilter
SYMBOL current 128 288 R180
WINDOW 0 24 80 Left 2
WINDOW 3 24 0 Left 2
WINDOW 123 0 0 Left 0
WINDOW 39 0 0 Left 0
SYMATTR InstName I1
SYMATTR Value PULSE(0 100n 1n 0 0 2u 10u)
SYMBOL diode 240 208 R0
SYMATTR InstName D1
SYMBOL cap 368 208 R0
SYMATTR InstName C1
SYMATTR Value 4p
SYMBOL res 496 192 R0
SYMATTR InstName R1
SYMATTR Value 10Meg
SYMBOL voltage 624 368 R0
WINDOW 123 0 0 Left 0
WINDOW 39 0 0 Left 0
SYMATTR InstName V1
SYMATTR Value 5V
SYMBOL res 800 192 R0
SYMATTR InstName R2
SYMATTR Value 100k
SYMBOL OpAmps\\UniversalOpAmp1 1088 144 R0
SYMATTR InstName U1
SYMBOL res 1152 0 R90
WINDOW 0 0 56 VBottom 2
WINDOW 3 32 56 VTop 2
SYMATTR InstName R3
SYMATTR Value 90k
SYMBOL res 944 32 R90
WINDOW 0 0 56 VBottom 2
WINDOW 3 32 56 VTop 2
SYMATTR InstName R4
SYMATTR Value 10k
SYMBOL cap 1664 128 R90
WINDOW 0 0 32 VBottom 2
WINDOW 3 32 32 VTop 2
SYMATTR InstName C2
SYMATTR Value 100µF
SYMBOL res 1696 192 R0
SYMATTR InstName R5
SYMATTR Value 10k
TEXT 832 304 Left 2 ;Load Resistor
TEXT 88 16 Left 2 !.tran 0 1m 0 10u
TEXT 224 120 Left 2 ;Model of Photodiode
TEXT 448 480 Left 2 ;Reverse Bias
TEXT 920 -96 Left 2 ;Gain: about 10x\nWe might have to change this
TEXT 1712 56 Center 2 ;High Pass Filter\n(WIP)
